Circuit: * C:\Users\bradw\Desktop\UltimateAltium\LT_sim\OBATS_Front_End_Signal_Chain\Draft1.asc

.OP point found by inspection.

Date: Sat Jul 18 17:07:23 2020
Total elapsed time: 0.063 seconds.

tnom = 27
temp = 27
method = modified trap
totiter = 5766
traniter = 5766
tranpoints = 2884
accept = 2659
rejected = 225
matrix size = 2
fillins = 0
solver = Normal
Matrix Compiler1:       2 opcodes  0.0/[0.0]/0.0
Matrix Compiler2: 96 bytes object code size  0.0/0.0/[0.0]

