Circuit: * C:\Users\chadl\Desktop\UltimateAltium\LT_sim\OBATS_Front_End_Signal_Chain.asc

Direct Newton iteration failed to find .op point.  (Use ".option noopiter" to skip.)
Starting Gmin stepping
Gmin = 10
Gmin = 1.07374
Gmin = 0.115292
Gmin = 0.0123794
Gmin = 0.00132923
Gmin = 0.000142725
Gmin = 1.5325e-05
Gmin = 1.6455e-06
Gmin = 1.76685e-07
Gmin = 1.89714e-08
Gmin = 2.03704e-09
Gmin = 2.18725e-10
Gmin = 2.34854e-11
Gmin = 2.52173e-12
Gmin = 2.70769e-13
Gmin = 0
Gmin stepping succeeded in finding the operating point.


Date: Tue Aug 25 20:26:44 2020
Total elapsed time: 0.069 seconds.

tnom = 27
temp = 27
method = trap
totiter = 712
traniter = 0
tranpoints = 0
accept = 0
rejected = 0
matrix size = 85
fillins = 54
solver = Normal
Matrix Compiler1:     456 opcodes  1.3/0.8/[0.4]
Matrix Compiler2: 8.36 KB object code size  0.5/0.8/[0.4]

