<<<<<<< HEAD
Circuit: * C:\Users\bradw\Desktop\UltimateAltium\LT_sim\OBATS_Front_End_Signal_Chain.asc
=======
Circuit: * C:\Users\chadl\Desktop\UltimateAltium\LT_sim\OBATS_Front_End_Signal_Chain.asc
>>>>>>> 50e5d016fded36cef86dc5347ee65c0c46e79a30

Direct Newton iteration failed to find .op point.  (Use ".option noopiter" to skip.)
Starting Gmin stepping
Gmin = 10
Gmin = 1.07374
Gmin = 0.115292
Gmin = 0.0123794
Gmin = 0.00132923
Gmin = 0.000142725
Gmin = 1.5325e-005
Gmin = 1.6455e-006
Gmin = 1.76685e-007
Gmin = 1.89714e-008
Gmin = 2.03704e-009
Gmin = 2.18725e-010
Gmin = 2.34854e-011
Gmin = 2.52173e-012
Gmin = 2.70769e-013
Gmin = 0
Gmin stepping succeeded in finding the operating point.


<<<<<<< HEAD
Date: Tue Jul 21 12:19:33 2020
Total elapsed time: 0.088 seconds.
=======
Date: Tue Jul 21 13:26:52 2020
Total elapsed time: 0.062 seconds.
>>>>>>> 50e5d016fded36cef86dc5347ee65c0c46e79a30

tnom = 27
temp = 27
method = trap
<<<<<<< HEAD
totiter = 710
=======
totiter = 712
>>>>>>> 50e5d016fded36cef86dc5347ee65c0c46e79a30
traniter = 0
tranpoints = 0
accept = 0
rejected = 0
matrix size = 85
fillins = 54
solver = Normal
<<<<<<< HEAD
Matrix Compiler1:     456 opcodes  1.4/0.8/[0.4]
Matrix Compiler2: 8.36 KB object code size  0.7/0.9/[0.3]
=======
Matrix Compiler1:     456 opcodes  1.3/0.6/[0.4]
Matrix Compiler2: 8.36 KB object code size  0.6/0.8/[0.3]
>>>>>>> 50e5d016fded36cef86dc5347ee65c0c46e79a30

